@<TRIPOS>MOLECULE
60C
   60    90 0 0 0
SMALL
NO_CHARGES
****

@<TRIPOS>ATOM
      1 C1           0.9440     0.2860     3.2390 C        1 SYS        0.0000
      2 C2           2.2290     0.4540     2.7040 C        1 SYS        0.0000
      3 C3           2.6120    -0.8090     2.2080 C        1 SYS        0.0000
      4 C4          -0.7710    -1.4370     3.0160 C        1 SYS        0.0000
      5 C5          -1.8030    -0.4780     3.0070 C        1 SYS        0.0000
      6 C6          -1.4470     0.8890     3.1060 C        1 SYS        0.0000
      7 C7          -0.0910     1.2340     3.2080 C        1 SYS        0.0000
      8 C8           2.4870     1.6420     1.9590 C        1 SYS        0.0000
      9 C9           1.4190     2.5490     1.8610 C        1 SYS        0.0000
     10 C10          0.1450     2.4320     2.4610 C        1 SYS        0.0000
     11 C11          3.2620    -0.8490     0.9450 C        1 SYS        0.0000
     12 C12          3.5980     0.3010     0.2010 C        1 SYS        0.0000
     13 C13         -1.1070    -2.5250     2.1650 C        1 SYS        0.0000
     14 C14          1.9650    -2.9040     0.4050 C        1 SYS        0.0000
     15 C15          2.9150    -1.9110     0.0630 C        1 SYS        0.0000
     16 C16         -2.7550    -0.9290     2.0560 C        1 SYS        0.0000
     17 C17         -2.3340    -2.1840     1.5540 C        1 SYS        0.0000
     18 C18         -1.0800     2.8570     1.9170 C        1 SYS        0.0000
     19 C19         -2.0090     1.8520     2.2210 C        1 SYS        0.0000
     20 C20          1.0290    -3.3550    -0.5570 C        1 SYS        0.0000
     21 C21         -0.2120    -3.4220     0.0910 C        1 SYS        0.0000
     22 C22          3.4070    -0.0200    -1.1690 C        1 SYS        0.0000
     23 C23          2.9600    -1.3560    -1.2450 C        1 SYS        0.0000
     24 C24         -2.9210     1.3530     1.2560 C        1 SYS        0.0000
     25 C25         -3.3440     0.0180     1.1650 C        1 SYS        0.0000
     26 C26         -1.4460    -3.0790    -0.5050 C        1 SYS        0.0000
     27 C27         -2.5200    -2.4850     0.1720 C        1 SYS        0.0000
     28 C28          2.0040    -1.8330    -2.1770 C        1 SYS        0.0000
     29 C29          1.0570    -2.8260    -1.8840 C        1 SYS        0.0000
     30 C30          2.3020     2.1670    -1.5320 C        1 SYS        0.0000
     31 C31          2.7540     0.9100    -2.0270 C        1 SYS        0.0000
     32 C32          0.2080     3.4240    -0.0750 C        1 SYS        0.0000
     33 C33         -1.0280     3.3620     0.5830 C        1 SYS        0.0000
     34 C34         -3.5470    -0.2870    -0.2040 C        1 SYS        0.0000
     35 C35         -3.1280    -1.5500    -0.6990 C        1 SYS        0.0000
     36 C36          0.0460     3.1380    -1.4650 C        1 SYS        0.0000
     37 C37          1.1160     2.5250    -2.1630 C        1 SYS        0.0000
     38 C38          1.8000     0.4980    -2.9640 C        1 SYS        0.0000
     39 C39          1.4230    -0.8990    -3.0600 C        1 SYS        0.0000
     40 C40         -0.1560    -2.4350    -2.4720 C        1 SYS        0.0000
     41 C41         -1.4090    -2.5440    -1.8310 C        1 SYS        0.0000
     42 C42          0.0450    -1.2770    -3.2580 C        1 SYS        0.0000
     43 C43          0.7630     1.5020    -3.0760 C        1 SYS        0.0000
     44 C44         -0.0350    -3.1510     1.4820 C        1 SYS        0.0000
     45 C45          1.3260    -2.8310     1.6680 C        1 SYS        0.0000
     46 C46          1.6730    -1.7860     2.5680 C        1 SYS        0.0000
     47 C47          0.5960    -1.0980     3.1540 C        1 SYS        0.0000
     48 C48          3.1680     1.5610     0.7190 C        1 SYS        0.0000
     49 C49          2.5080     2.4430    -0.1560 C        1 SYS        0.0000
     50 C50          1.4320     3.0500     0.5240 C        1 SYS        0.0000
     51 C51         -2.4590    -1.6180    -1.9460 C        1 SYS        0.0000
     52 C52         -0.9970    -0.2750    -3.3660 C        1 SYS        0.0000
     53 C53         -2.2280    -0.4400    -2.7190 C        1 SYS        0.0000
     54 C54         -3.3200     0.8890    -0.9690 C        1 SYS        0.0000
     55 C55         -2.8950     1.8810    -0.0710 C        1 SYS        0.0000
     56 C56         -2.6510     0.8170    -2.2220 C        1 SYS        0.0000
     57 C57         -1.9210     2.8570    -0.3770 C        1 SYS        0.0000
     58 C58         -1.2990     2.8090    -1.6570 C        1 SYS        0.0000
     59 C59         -0.6220     1.1290    -3.2660 C        1 SYS        0.0000
     60 C60         -1.6580     1.7690    -2.5620 C        1 SYS        0.0000
@<TRIPOS>BOND
      1    1    7 1
      2    1    2 2
      3    3   46 2
      4    2    3 1
      5    4    5 1
      6    5    6 2
      7    6    7 1
      8    8    9 2
      9    2    8 1
     10    9   10 1
     11   10   18 1
     12    7   10 2
     13    3   11 1
     14   11   12 2
     15   12   48 1
     16   13   17 2
     17    4   13 1
     18   14   45 1
     19   14   15 2
     20   11   15 1
     21    5   16 1
     22   16   17 1
     23   18   19 2
     24    6   19 1
     25   14   20 1
     26   20   21 2
     27   21   26 1
     28   21   44 1
     29   12   22 1
     30   22   23 1
     31   15   23 1
     32   19   24 1
     33   24   25 1
     34   16   25 2
     35   26   27 1
     36   17   27 1
     37   23   28 2
     38   28   29 1
     39   29   40 2
     40   20   29 1
     41   30   37 2
     42   30   49 1
     43   22   31 2
     44   30   31 1
     45   32   33 1
     46   18   33 1
     47   25   34 1
     48   27   35 2
     49   34   35 1
     50   36   58 2
     51   32   36 1
     52   36   37 1
     53   31   38 1
     54   38   43 1
     55   38   39 2
     56   28   39 1
     57   39   42 1
     58   40   41 1
     59   41   51 1
     60   26   41 2
     61   42   52 2
     62   40   42 1
     63   43   59 2
     64   37   43 1
     65   13   44 1
     66   44   45 2
     67   45   46 1
     68   46   47 1
     69    1   47 1
     70    4   47 2
     71    8   48 1
     72   48   49 2
     73   49   50 1
     74   32   50 2
     75    9   50 1
     76   35   51 1
     77   52   59 1
     78   52   53 1
     79   51   53 2
     80   53   56 1
     81   34   54 2
     82   54   55 1
     83   24   55 2
     84   54   56 1
     85   33   57 2
     86   55   57 1
     87   57   58 1
     88   59   60 1
     89   56   60 2
     90   58   60 1
